<?xml version="1.0" encoding="UTF-8"?>

<!-- generated on 07/18/14 11:01:15 by SUMO netgenerate Version 0.19.0
<?xml version="1.0" encoding="UTF-8"?>

<configuration xmlns:xsi="http://www.w3.org/2001/XMLSchema-instance" xsi:noNamespaceSchemaLocation="http://sumo-sim.org/xsd/netgenerateConfiguration.xsd">

    <grid_network>
        <grid value="true"/>
        <grid.number value="4"/>
        <grid.length value="400"/>
    </grid_network>

    <output>
        <output-file value="fanjing.net.xml"/>
        <plain-output-prefix value="fanjing"/>
    </output>

</configuration>
-->

<nodes version="0.13" xmlns:xsi="http://www.w3.org/2001/XMLSchema-instance" xsi:noNamespaceSchemaLocation="http://sumo-sim.org/xsd/nodes_file.xsd">
    <location netOffset="0.00,0.00" convBoundary="0.00,0.00,1200.00,1200.00" origBoundary="0.00,0.00,1200.00,1200.00" projParameter="!"/>

    <node id="0/0" x="0.00" y="0.00" type="priority"/>
    <node id="0/1" x="0.00" y="400.00" type="priority"/>
    <node id="0/2" x="0.00" y="800.00" type="priority"/>
    <node id="0/3" x="0.00" y="1200.00" type="priority"/>
    <node id="1/0" x="400.00" y="0.00" type="priority"/>
    <node id="1/1" x="400.00" y="400.00" type="priority"/>
    <node id="1/2" x="400.00" y="800.00" type="priority"/>
    <node id="1/3" x="400.00" y="1200.00" type="priority"/>
    <node id="2/0" x="800.00" y="0.00" type="priority"/>
    <node id="2/1" x="800.00" y="400.00" type="priority"/>
    <node id="2/2" x="800.00" y="800.00" type="priority"/>
    <node id="2/3" x="800.00" y="1200.00" type="priority"/>
    <node id="3/0" x="1200.00" y="0.00" type="priority"/>
    <node id="3/1" x="1200.00" y="400.00" type="priority"/>
    <node id="3/2" x="1200.00" y="800.00" type="priority"/>
    <node id="3/3" x="1200.00" y="1200.00" type="priority"/>
</nodes>
