<?xml version="1.0" encoding="UTF-8"?>
<nodes version="0.13" xmlns:xsi="http://www.w3.org/2001/XMLSchema-instance" xsi:noNamespaceSchemaLocation="http://sumo-sim.org/xsd/nodes_file.xsd">
    <location netOffset="0.00,0.00" convBoundary="0.00,0.00,2000.0,1200.0" origBoundary="0.00,0.00,2000.0,1200.0" projParameter="!"/>
    <node id="1/0" x="400.0" y="0.0" type="traffic_light" tl="1/0"/>
    <node id="3/0" x="1200.0" y="0.0" type="traffic_light" tl="3/0"/>
    <node id="0/1" x="0.0" y="400.0" type="traffic_light" tl="0/1"/>
    <node id="1/1" x="400.0" y="400.0" type="traffic_light" tl="1/1"/>
    <node id="3/1" x="1200.0" y="400.0" type="traffic_light" tl="3/1"/>
    <node id="4/1" x="1600.0" y="400.0" type="traffic_light" tl="4/1"/>
    <node id="1/2" x="400.0" y="800.0" type="traffic_light" tl="1/2"/>
    <node id="3/2" x="1200.0" y="800.0" type="traffic_light" tl="3/2"/>
</nodes>