<?xml version="1.0" encoding="UTF-8"?>
<connections version="0.13" xmlns:xsi="http://www.w3.org/2001/XMLSchema-instance" xsi:noNamespaceSchemaLocation="http://sumo-sim.org/xsd/connections_file.xsd">
    <connection from="3/0to1/0" to="1/0to1/1" fromLane="0" toLane="0"/>
    <connection from="3/0to1/0" to="1/0to1/1" fromLane="0" toLane="1"/>
    <connection from="3/0to1/0" to="1/0to1/1" fromLane="0" toLane="2"/>

    <connection from="1/1to1/0" to="1/0to3/0" fromLane="0" toLane="0"/>

    <connection from="3/1to3/0" to="3/0to1/0" fromLane="0" toLane="0"/>

    <connection from="1/0to3/0" to="3/0to3/1" fromLane="0" toLane="0"/>
    <connection from="1/0to3/0" to="3/0to3/1" fromLane="0" toLane="1"/>
    <connection from="1/0to3/0" to="3/0to3/1" fromLane="0" toLane="2"/>


    <connection from="3/1to1/1" to="1/1to1/2" fromLane="0" toLane="0"/>
    <connection from="3/1to1/1" to="1/1to0/1" fromLane="1" toLane="0"/>
    <connection from="3/1to1/1" to="1/1to1/0" fromLane="2" toLane="0"/>

    <connection from="1/2to1/1" to="1/1to0/1" fromLane="0" toLane="0"/>
    <connection from="1/2to1/1" to="1/1to1/0" fromLane="1" toLane="0"/>
    <connection from="1/2to1/1" to="1/1to3/1" fromLane="2" toLane="0"/>
    <connection from="1/2to1/1" to="1/1to3/1" fromLane="2" toLane="1"/>
    <connection from="1/2to1/1" to="1/1to3/1" fromLane="2" toLane="2"/>

    <connection from="0/1to1/1" to="1/1to1/0" fromLane="0" toLane="0"/>
    <connection from="0/1to1/1" to="1/1to3/1" fromLane="1" toLane="0"/>
    <connection from="0/1to1/1" to="1/1to3/1" fromLane="1" toLane="1"/>
    <connection from="0/1to1/1" to="1/1to3/1" fromLane="1" toLane="2"/>
    <connection from="0/1to1/1" to="1/1to1/2" fromLane="2" toLane="0"/>

    <connection from="1/0to1/1" to="1/1to3/1" fromLane="0" toLane="0"/>
    <connection from="1/0to1/1" to="1/1to3/1" fromLane="0" toLane="1"/>
    <connection from="1/0to1/1" to="1/1to3/1" fromLane="0" toLane="2"/>
    <connection from="1/0to1/1" to="1/1to1/2" fromLane="1" toLane="0"/>
    <connection from="1/0to1/1" to="1/1to0/1" fromLane="2" toLane="0"/>

    <connection from="4/1to3/1" to="3/1to3/2" fromLane="0" toLane="0"/>
    <connection from="4/1to3/1" to="3/1to1/1" fromLane="1" toLane="0"/>
    <connection from="4/1to3/1" to="3/1to1/1" fromLane="1" toLane="1"/>
    <connection from="4/1to3/1" to="3/1to1/1" fromLane="1" toLane="2"/>
    <connection from="4/1to3/1" to="3/1to3/0" fromLane="2" toLane="0"/>

    <connection from="3/2to3/1" to="3/1to1/1" fromLane="0" toLane="0"/>
    <connection from="3/2to3/1" to="3/1to1/1" fromLane="0" toLane="1"/>
    <connection from="3/2to3/1" to="3/1to1/1" fromLane="0" toLane="2"/>
    <connection from="3/2to3/1" to="3/1to3/0" fromLane="1" toLane="0"/>
    <connection from="3/2to3/1" to="3/1to4/1" fromLane="2" toLane="0"/>

    <connection from="1/1to3/1" to="3/1to3/0" fromLane="0" toLane="0"/>
    <connection from="1/1to3/1" to="3/1to4/1" fromLane="1" toLane="0"/>
    <connection from="1/1to3/1" to="3/1to3/2" fromLane="2" toLane="0"/>

    <connection from="3/0to3/1" to="3/1to4/1" fromLane="0" toLane="0"/>
    <connection from="3/0to3/1" to="3/1to3/2" fromLane="1" toLane="0"/>
    <connection from="3/0to3/1" to="3/1to1/1" fromLane="2" toLane="0"/>
    <connection from="3/0to3/1" to="3/1to1/1" fromLane="2" toLane="1"/>
    <connection from="3/0to3/1" to="3/1to1/1" fromLane="2" toLane="2"/>


    <connection from="3/2to1/2" to="1/2to1/1" fromLane="0" toLane="0"/>
    <connection from="3/2to1/2" to="1/2to1/1" fromLane="0" toLane="1"/>
    <connection from="3/2to1/2" to="1/2to1/1" fromLane="0" toLane="2"/>

    <connection from="1/1to1/2" to="1/2to3/2" fromLane="0" toLane="0"/>

    <connection from="1/2to3/2" to="3/2to3/1" fromLane="0" toLane="0"/>
    <connection from="1/2to3/2" to="3/2to3/1" fromLane="0" toLane="1"/>
    <connection from="1/2to3/2" to="3/2to3/1" fromLane="0" toLane="2"/>

    <connection from="3/1to3/2" to="3/2to1/2" fromLane="0" toLane="0"/>

</connections>