<?xml version="1.0" encoding="UTF-8"?>
<tlLogics version="0.13" xmlns:xsi="http://www.w3.org/2001/XMLSchema-instance" xsi:noNamespaceSchemaLocation="http://sumo-sim.org/xsd/tllogic_file.xsd">
    <tlLogic id="1/0" type="static" programID="0" offset="0.0">
       <phase duration="30.0" state="GGGG"/>
    </tlLogic>
    <tlLogic id="3/0" type="static" programID="0" offset="0.0">
       <phase duration="30.0" state="GGGG"/>
    </tlLogic>
    <tlLogic id="0/1" type="static" programID="0" offset="0.0">
       <phase duration="30.0" state="GGGG"/>
    </tlLogic>
    <tlLogic id="1/1" type="static" programID="0" offset="0.0">
       <phase duration="27.0" state="rGGrrrrGGrrr"/>
       <phase duration="3.0" state="ryGrrrryGrrr"/>
       <phase duration="27.0" state="rrGGrrrrGGrr"/>
       <phase duration="3.0" state="rryyrrrryyrr"/>
       <phase duration="27.0" state="rrrrGGrrrrGG"/>
       <phase duration="3.0" state="rrrryGrrrryG"/>
       <phase duration="27.0" state="GrrrrGGrrrrG"/>
       <phase duration="3.0" state="yrrrryyrrrry"/>
    </tlLogic>
    <tlLogic id="3/1" type="static" programID="0" offset="0.0">
       <phase duration="27.0" state="rGGrrrrGGrrr"/>
       <phase duration="3.0" state="ryGrrrryGrrr"/>
       <phase duration="27.0" state="rrGGrrrrGGrr"/>
       <phase duration="3.0" state="rryyrrrryyrr"/>
       <phase duration="27.0" state="rrrrGGrrrrGG"/>
       <phase duration="3.0" state="rrrryGrrrryG"/>
       <phase duration="27.0" state="GrrrrGGrrrrG"/>
       <phase duration="3.0" state="yrrrryyrrrry"/>
    </tlLogic>
    <tlLogic id="4/1" type="static" programID="0" offset="0.0">
       <phase duration="30.0" state="GGGG"/>
    </tlLogic>
    <tlLogic id="0/2" type="static" programID="0" offset="0.0">
       <phase duration="30.0" state="GGGG"/>
    </tlLogic>
    <tlLogic id="1/2" type="static" programID="0" offset="0.0">
       <phase duration="27.0" state="rGGrrrrGGrrr"/>
       <phase duration="3.0" state="ryGrrrryGrrr"/>
       <phase duration="27.0" state="rrGGrrrrGGrr"/>
       <phase duration="3.0" state="rryyrrrryyrr"/>
       <phase duration="27.0" state="rrrrGGrrrrGG"/>
       <phase duration="3.0" state="rrrryGrrrryG"/>
       <phase duration="27.0" state="GrrrrGGrrrrG"/>
       <phase duration="3.0" state="yrrrryyrrrry"/>
    </tlLogic>
    <tlLogic id="2/2" type="static" programID="0" offset="0.0">
       <phase duration="27.0" state="GGrrrG"/>
       <phase duration="3.0" state="yGrrry"/>
       <phase duration="27.0" state="rGGGrr"/>
       <phase duration="3.0" state="ryyGrr"/>
       <phase duration="27.0" state="rrrGGG"/>
       <phase duration="3.0" state="rrryyG"/>
    </tlLogic>
    <tlLogic id="3/2" type="static" programID="0" offset="0.0">
       <phase duration="27.0" state="rGGrrrrGGrrr"/>
       <phase duration="3.0" state="ryGrrrryGrrr"/>
       <phase duration="27.0" state="rrGGrrrrGGrr"/>
       <phase duration="3.0" state="rryyrrrryyrr"/>
       <phase duration="27.0" state="rrrrGGrrrrGG"/>
       <phase duration="3.0" state="rrrryGrrrryG"/>
       <phase duration="27.0" state="GrrrrGGrrrrG"/>
       <phase duration="3.0" state="yrrrryyrrrry"/>
    </tlLogic>
    <tlLogic id="4/2" type="static" programID="0" offset="0.0">
       <phase duration="30.0" state="GGGG"/>
    </tlLogic>
    <tlLogic id="1/3" type="static" programID="0" offset="0.0">
       <phase duration="30.0" state="GGGG"/>
    </tlLogic>
    <tlLogic id="2/3" type="static" programID="0" offset="0.0">
       <phase duration="27.0" state="GGrrrG"/>
       <phase duration="3.0" state="yGrrry"/>
       <phase duration="27.0" state="rGGGrr"/>
       <phase duration="3.0" state="ryyGrr"/>
       <phase duration="27.0" state="rrrGGG"/>
       <phase duration="3.0" state="rrryyG"/>
    </tlLogic>
    <tlLogic id="3/3" type="static" programID="0" offset="0.0">
       <phase duration="30.0" state="GGGG"/>
    </tlLogic>
    <connection from="3/0to1/0" to="1/0to1/1" fromLane="0" toLane="0" tl="1/0" linkIndex="0"/>
    <connection from="3/0to1/0" to="1/0to1/1" fromLane="0" toLane="1" tl="1/0" linkIndex="0"/>
    <connection from="3/0to1/0" to="1/0to1/1" fromLane="0" toLane="2" tl="1/0" linkIndex="0"/>
    <connection from="3/0to1/0" to="1/0to1/1" fromLane="1" toLane="0" tl="1/0" linkIndex="1"/>
    <connection from="3/0to1/0" to="1/0to1/1" fromLane="1" toLane="1" tl="1/0" linkIndex="1"/>
    <connection from="3/0to1/0" to="1/0to1/1" fromLane="1" toLane="2" tl="1/0" linkIndex="1"/>

    <connection from="1/1to1/0" to="1/0to3/0" fromLane="0" toLane="0" tl="1/0" linkIndex="2"/>
    <connection from="1/1to1/0" to="1/0to3/0" fromLane="0" toLane="1" tl="1/0" linkIndex="2"/>
    <connection from="1/1to1/0" to="1/0to3/0" fromLane="1" toLane="0" tl="1/0" linkIndex="3"/>
    <connection from="1/1to1/0" to="1/0to3/0" fromLane="1" toLane="1" tl="1/0" linkIndex="3"/>

    <connection from="3/1to3/0" to="3/0to1/0" fromLane="0" toLane="0" tl="3/0" linkIndex="0"/>
    <connection from="3/1to3/0" to="3/0to1/0" fromLane="0" toLane="1" tl="3/0" linkIndex="0"/>
    <connection from="3/1to3/0" to="3/0to1/0" fromLane="1" toLane="0" tl="3/0" linkIndex="1"/>
    <connection from="3/1to3/0" to="3/0to1/0" fromLane="1" toLane="1" tl="3/0" linkIndex="1"/>

    <connection from="1/0to3/0" to="3/0to3/1" fromLane="0" toLane="0" tl="3/0" linkIndex="2"/>
    <connection from="1/0to3/0" to="3/0to3/1" fromLane="0" toLane="1" tl="3/0" linkIndex="2"/>
    <connection from="1/0to3/0" to="3/0to3/1" fromLane="0" toLane="2" tl="3/0" linkIndex="2"/>
    <connection from="1/0to3/0" to="3/0to3/1" fromLane="1" toLane="0" tl="3/0" linkIndex="3"/>
    <connection from="1/0to3/0" to="3/0to3/1" fromLane="1" toLane="1" tl="3/0" linkIndex="3"/>
    <connection from="1/0to3/0" to="3/0to3/1" fromLane="1" toLane="2" tl="3/0" linkIndex="3"/>

    <connection from="1/1to0/1" to="0/1to0/2" fromLane="0" toLane="0" tl="0/1" linkIndex="0"/>
    <connection from="1/1to0/1" to="0/1to0/2" fromLane="0" toLane="1" tl="0/1" linkIndex="0"/>
    <connection from="1/1to0/1" to="0/1to0/2" fromLane="1" toLane="0" tl="0/1" linkIndex="1"/>
    <connection from="1/1to0/1" to="0/1to0/2" fromLane="1" toLane="1" tl="0/1" linkIndex="1"/>

    <connection from="0/2to0/1" to="0/1to1/1" fromLane="0" toLane="0" tl="0/1" linkIndex="2"/>
    <connection from="0/2to0/1" to="0/1to1/1" fromLane="0" toLane="1" tl="0/1" linkIndex="2"/>
    <connection from="0/2to0/1" to="0/1to1/1" fromLane="0" toLane="2" tl="0/1" linkIndex="2"/>
    <connection from="0/2to0/1" to="0/1to1/1" fromLane="1" toLane="0" tl="0/1" linkIndex="3"/>
    <connection from="0/2to0/1" to="0/1to1/1" fromLane="1" toLane="1" tl="0/1" linkIndex="3"/>
    <connection from="0/2to0/1" to="0/1to1/1" fromLane="1" toLane="2" tl="0/1" linkIndex="3"/>

    <connection from="3/1to1/1" to="1/1to1/2" fromLane="0" toLane="0" tl="1/1" linkIndex="2"/>
    <connection from="3/1to1/1" to="1/1to1/2" fromLane="0" toLane="1" tl="1/1" linkIndex="2"/>
    <connection from="3/1to1/1" to="1/1to1/2" fromLane="0" toLane="2" tl="1/1" linkIndex="2"/>
    <connection from="3/1to1/1" to="1/1to0/1" fromLane="1" toLane="0" tl="1/1" linkIndex="1"/>
    <connection from="3/1to1/1" to="1/1to0/1" fromLane="1" toLane="1" tl="1/1" linkIndex="1"/>
    <connection from="3/1to1/1" to="1/1to1/0" fromLane="2" toLane="0" tl="1/1" linkIndex="0"/>
    <connection from="3/1to1/1" to="1/1to1/0" fromLane="2" toLane="1" tl="1/1" linkIndex="0"/>

    <connection from="1/2to1/1" to="1/1to0/1" fromLane="0" toLane="0" tl="1/1" linkIndex="5"/>
    <connection from="1/2to1/1" to="1/1to0/1" fromLane="0" toLane="1" tl="1/1" linkIndex="5"/>
    <connection from="1/2to1/1" to="1/1to1/0" fromLane="1" toLane="0" tl="1/1" linkIndex="4"/>
    <connection from="1/2to1/1" to="1/1to1/0" fromLane="1" toLane="1" tl="1/1" linkIndex="4"/>
    <connection from="1/2to1/1" to="1/1to3/1" fromLane="2" toLane="0" tl="1/1" linkIndex="3"/>
    <connection from="1/2to1/1" to="1/1to3/1" fromLane="2" toLane="1" tl="1/1" linkIndex="3"/>
    <connection from="1/2to1/1" to="1/1to3/1" fromLane="2" toLane="2" tl="1/1" linkIndex="3"/>

    <connection from="0/1to1/1" to="1/1to1/0" fromLane="0" toLane="0" tl="1/1" linkIndex="8"/>
    <connection from="0/1to1/1" to="1/1to1/0" fromLane="0" toLane="1" tl="1/1" linkIndex="8"/>
    <connection from="0/1to1/1" to="1/1to3/1" fromLane="1" toLane="0" tl="1/1" linkIndex="7"/>
    <connection from="0/1to1/1" to="1/1to3/1" fromLane="1" toLane="1" tl="1/1" linkIndex="7"/>
    <connection from="0/1to1/1" to="1/1to3/1" fromLane="1" toLane="2" tl="1/1" linkIndex="7"/>
    <connection from="0/1to1/1" to="1/1to1/2" fromLane="2" toLane="0" tl="1/1" linkIndex="6"/>
    <connection from="0/1to1/1" to="1/1to1/2" fromLane="2" toLane="1" tl="1/1" linkIndex="6"/>
    <connection from="0/1to1/1" to="1/1to1/2" fromLane="2" toLane="2" tl="1/1" linkIndex="6"/>

    <connection from="1/0to1/1" to="1/1to3/1" fromLane="0" toLane="0" tl="1/1" linkIndex="11"/>
    <connection from="1/0to1/1" to="1/1to3/1" fromLane="0" toLane="1" tl="1/1" linkIndex="11"/>
    <connection from="1/0to1/1" to="1/1to3/1" fromLane="0" toLane="2" tl="1/1" linkIndex="11"/>
    <connection from="1/0to1/1" to="1/1to1/2" fromLane="1" toLane="0" tl="1/1" linkIndex="10"/>
    <connection from="1/0to1/1" to="1/1to1/2" fromLane="1" toLane="1" tl="1/1" linkIndex="10"/>
    <connection from="1/0to1/1" to="1/1to1/2" fromLane="1" toLane="2" tl="1/1" linkIndex="10"/>
    <connection from="1/0to1/1" to="1/1to0/1" fromLane="2" toLane="0" tl="1/1" linkIndex="9"/>
    <connection from="1/0to1/1" to="1/1to0/1" fromLane="2" toLane="1" tl="1/1" linkIndex="9"/>

    <connection from="4/1to3/1" to="3/1to3/2" fromLane="0" toLane="0" tl="3/1" linkIndex="2"/>
    <connection from="4/1to3/1" to="3/1to3/2" fromLane="0" toLane="1" tl="3/1" linkIndex="2"/>
    <connection from="4/1to3/1" to="3/1to3/2" fromLane="0" toLane="2" tl="3/1" linkIndex="2"/>
    <connection from="4/1to3/1" to="3/1to1/1" fromLane="1" toLane="0" tl="3/1" linkIndex="1"/>
    <connection from="4/1to3/1" to="3/1to1/1" fromLane="1" toLane="1" tl="3/1" linkIndex="1"/>
    <connection from="4/1to3/1" to="3/1to1/1" fromLane="1" toLane="2" tl="3/1" linkIndex="1"/>
    <connection from="4/1to3/1" to="3/1to3/0" fromLane="2" toLane="0" tl="3/1" linkIndex="0"/>
    <connection from="4/1to3/1" to="3/1to3/0" fromLane="2" toLane="1" tl="3/1" linkIndex="0"/>

    <connection from="3/2to3/1" to="3/1to1/1" fromLane="0" toLane="0" tl="3/1" linkIndex="5"/>
    <connection from="3/2to3/1" to="3/1to1/1" fromLane="0" toLane="1" tl="3/1" linkIndex="5"/>
    <connection from="3/2to3/1" to="3/1to1/1" fromLane="0" toLane="2" tl="3/1" linkIndex="5"/>
    <connection from="3/2to3/1" to="3/1to3/0" fromLane="1" toLane="0" tl="3/1" linkIndex="4"/>
    <connection from="3/2to3/1" to="3/1to3/0" fromLane="1" toLane="1" tl="3/1" linkIndex="4"/>
    <connection from="3/2to3/1" to="3/1to4/1" fromLane="2" toLane="0" tl="3/1" linkIndex="3"/>
    <connection from="3/2to3/1" to="3/1to4/1" fromLane="2" toLane="1" tl="3/1" linkIndex="3"/>

    <connection from="1/1to3/1" to="3/1to3/0" fromLane="0" toLane="0" tl="3/1" linkIndex="8"/>
    <connection from="1/1to3/1" to="3/1to3/0" fromLane="0" toLane="1" tl="3/1" linkIndex="8"/>
    <connection from="1/1to3/1" to="3/1to4/1" fromLane="1" toLane="0" tl="3/1" linkIndex="7"/>
    <connection from="1/1to3/1" to="3/1to4/1" fromLane="1" toLane="1" tl="3/1" linkIndex="7"/>
    <connection from="1/1to3/1" to="3/1to3/2" fromLane="2" toLane="0" tl="3/1" linkIndex="6"/>
    <connection from="1/1to3/1" to="3/1to3/2" fromLane="2" toLane="1" tl="3/1" linkIndex="6"/>
    <connection from="1/1to3/1" to="3/1to3/2" fromLane="2" toLane="2" tl="3/1" linkIndex="6"/>

    <connection from="3/0to3/1" to="3/1to4/1" fromLane="0" toLane="0" tl="3/1" linkIndex="11"/>
    <connection from="3/0to3/1" to="3/1to4/1" fromLane="0" toLane="1" tl="3/1" linkIndex="11"/>
    <connection from="3/0to3/1" to="3/1to3/2" fromLane="1" toLane="0" tl="3/1" linkIndex="10"/>
    <connection from="3/0to3/1" to="3/1to3/2" fromLane="1" toLane="1" tl="3/1" linkIndex="10"/>
    <connection from="3/0to3/1" to="3/1to3/2" fromLane="1" toLane="2" tl="3/1" linkIndex="10"/>
    <connection from="3/0to3/1" to="3/1to1/1" fromLane="2" toLane="0" tl="3/1" linkIndex="9"/>
    <connection from="3/0to3/1" to="3/1to1/1" fromLane="2" toLane="1" tl="3/1" linkIndex="9"/>
    <connection from="3/0to3/1" to="3/1to1/1" fromLane="2" toLane="2" tl="3/1" linkIndex="9"/>

    <connection from="4/2to4/1" to="4/1to3/1" fromLane="0" toLane="0" tl="4/1" linkIndex="0"/>
    <connection from="4/2to4/1" to="4/1to3/1" fromLane="0" toLane="1" tl="4/1" linkIndex="0"/>
    <connection from="4/2to4/1" to="4/1to3/1" fromLane="0" toLane="2" tl="4/1" linkIndex="0"/>
    <connection from="4/2to4/1" to="4/1to3/1" fromLane="1" toLane="0" tl="4/1" linkIndex="1"/>
    <connection from="4/2to4/1" to="4/1to3/1" fromLane="1" toLane="1" tl="4/1" linkIndex="1"/>
    <connection from="4/2to4/1" to="4/1to3/1" fromLane="1" toLane="2" tl="4/1" linkIndex="1"/>

    <connection from="3/1to4/1" to="4/1to4/2" fromLane="0" toLane="0" tl="4/1" linkIndex="2"/>
    <connection from="3/1to4/1" to="4/1to4/2" fromLane="0" toLane="1" tl="4/1" linkIndex="2"/>
    <connection from="3/1to4/1" to="4/1to4/2" fromLane="1" toLane="0" tl="4/1" linkIndex="3"/>
    <connection from="3/1to4/1" to="4/1to4/2" fromLane="1" toLane="1" tl="4/1" linkIndex="3"/>

    <connection from="1/2to0/2" to="0/2to0/1" fromLane="0" toLane="0" tl="0/2" linkIndex="0"/>
    <connection from="1/2to0/2" to="0/2to0/1" fromLane="0" toLane="1" tl="0/2" linkIndex="0"/>
    <connection from="1/2to0/2" to="0/2to0/1" fromLane="1" toLane="0" tl="0/2" linkIndex="1"/>
    <connection from="1/2to0/2" to="0/2to0/1" fromLane="1" toLane="1" tl="0/2" linkIndex="1"/>

    <connection from="0/1to0/2" to="0/2to1/2" fromLane="0" toLane="0" tl="0/2" linkIndex="2"/>
    <connection from="0/1to0/2" to="0/2to1/2" fromLane="0" toLane="1" tl="0/2" linkIndex="2"/>
    <connection from="0/1to0/2" to="0/2to1/2" fromLane="0" toLane="2" tl="0/2" linkIndex="2"/>
    <connection from="0/1to0/2" to="0/2to1/2" fromLane="1" toLane="0" tl="0/2" linkIndex="3"/>
    <connection from="0/1to0/2" to="0/2to1/2" fromLane="1" toLane="1" tl="0/2" linkIndex="3"/>
    <connection from="0/1to0/2" to="0/2to1/2" fromLane="1" toLane="2" tl="0/2" linkIndex="3"/>

    <connection from="2/2to1/2" to="1/2to1/3" fromLane="0" toLane="0" tl="1/2" linkIndex="2"/>
    <connection from="2/2to1/2" to="1/2to1/3" fromLane="0" toLane="1" tl="1/2" linkIndex="2"/>
    <connection from="2/2to1/2" to="1/2to0/2" fromLane="1" toLane="0" tl="1/2" linkIndex="1"/>
    <connection from="2/2to1/2" to="1/2to0/2" fromLane="1" toLane="1" tl="1/2" linkIndex="1"/>
    <connection from="2/2to1/2" to="1/2to1/1" fromLane="2" toLane="0" tl="1/2" linkIndex="0"/>
    <connection from="2/2to1/2" to="1/2to1/1" fromLane="2" toLane="1" tl="1/2" linkIndex="0"/>
    <connection from="2/2to1/2" to="1/2to1/1" fromLane="2" toLane="2" tl="1/2" linkIndex="0"/>

    <connection from="1/3to1/2" to="1/2to0/2" fromLane="0" toLane="0" tl="1/2" linkIndex="5"/>
    <connection from="1/3to1/2" to="1/2to0/2" fromLane="0" toLane="1" tl="1/2" linkIndex="5"/>
    <connection from="1/3to1/2" to="1/2to1/1" fromLane="1" toLane="0" tl="1/2" linkIndex="4"/>
    <connection from="1/3to1/2" to="1/2to1/1" fromLane="1" toLane="1" tl="1/2" linkIndex="4"/>
    <connection from="1/3to1/2" to="1/2to1/1" fromLane="1" toLane="2" tl="1/2" linkIndex="4"/>
    <connection from="1/3to1/2" to="1/2to2/2" fromLane="2" toLane="0" tl="1/2" linkIndex="3"/>
    <connection from="1/3to1/2" to="1/2to2/2" fromLane="2" toLane="1" tl="1/2" linkIndex="3"/>

    <connection from="0/2to1/2" to="1/2to1/1" fromLane="0" toLane="0" tl="1/2" linkIndex="8"/>
    <connection from="0/2to1/2" to="1/2to1/1" fromLane="0" toLane="1" tl="1/2" linkIndex="8"/>
    <connection from="0/2to1/2" to="1/2to1/1" fromLane="0" toLane="2" tl="1/2" linkIndex="8"/>
    <connection from="0/2to1/2" to="1/2to2/2" fromLane="1" toLane="0" tl="1/2" linkIndex="7"/>
    <connection from="0/2to1/2" to="1/2to2/2" fromLane="1" toLane="1" tl="1/2" linkIndex="7"/>
    <connection from="0/2to1/2" to="1/2to1/3" fromLane="2" toLane="0" tl="1/2" linkIndex="6"/>
    <connection from="0/2to1/2" to="1/2to1/3" fromLane="2" toLane="1" tl="1/2" linkIndex="6"/>

    <connection from="1/1to1/2" to="1/2to2/2" fromLane="0" toLane="0" tl="1/2" linkIndex="11"/>
    <connection from="1/1to1/2" to="1/2to2/2" fromLane="0" toLane="1" tl="1/2" linkIndex="11"/>
    <connection from="1/1to1/2" to="1/2to1/3" fromLane="1" toLane="0" tl="1/2" linkIndex="10"/>
    <connection from="1/1to1/2" to="1/2to1/3" fromLane="1" toLane="1" tl="1/2" linkIndex="10"/>
    <connection from="1/1to1/2" to="1/2to0/2" fromLane="2" toLane="0" tl="1/2" linkIndex="9"/>
    <connection from="1/1to1/2" to="1/2to0/2" fromLane="2" toLane="1" tl="1/2" linkIndex="9"/>

    <connection from="3/2to2/2" to="2/2to2/3" fromLane="0" toLane="0" tl="2/2" linkIndex="1"/>
    <connection from="3/2to2/2" to="2/2to2/3" fromLane="0" toLane="1" tl="2/2" linkIndex="1"/>
    <connection from="3/2to2/2" to="2/2to1/2" fromLane="1" toLane="0" tl="2/2" linkIndex="0"/>
    <connection from="3/2to2/2" to="2/2to1/2" fromLane="1" toLane="1" tl="2/2" linkIndex="0"/>
    <connection from="3/2to2/2" to="2/2to1/2" fromLane="1" toLane="2" tl="2/2" linkIndex="0"/>

    <connection from="2/3to2/2" to="2/2to1/2" fromLane="0" toLane="0" tl="2/2" linkIndex="3"/>
    <connection from="2/3to2/2" to="2/2to1/2" fromLane="0" toLane="1" tl="2/2" linkIndex="3"/>
    <connection from="2/3to2/2" to="2/2to1/2" fromLane="0" toLane="2" tl="2/2" linkIndex="3"/>
    <connection from="2/3to2/2" to="2/2to3/2" fromLane="1" toLane="0" tl="2/2" linkIndex="2"/>
    <connection from="2/3to2/2" to="2/2to3/2" fromLane="1" toLane="1" tl="2/2" linkIndex="2"/>
    <connection from="2/3to2/2" to="2/2to3/2" fromLane="1" toLane="2" tl="2/2" linkIndex="2"/>

    <connection from="1/2to2/2" to="2/2to3/2" fromLane="0" toLane="0" tl="2/2" linkIndex="5"/>
    <connection from="1/2to2/2" to="2/2to3/2" fromLane="0" toLane="1" tl="2/2" linkIndex="5"/>
    <connection from="1/2to2/2" to="2/2to3/2" fromLane="0" toLane="2" tl="2/2" linkIndex="5"/>
    <connection from="1/2to2/2" to="2/2to2/3" fromLane="1" toLane="0" tl="2/2" linkIndex="4"/>
    <connection from="1/2to2/2" to="2/2to2/3" fromLane="1" toLane="1" tl="2/2" linkIndex="4"/>

    <connection from="4/2to3/2" to="3/2to3/3" fromLane="0" toLane="0" tl="3/2" linkIndex="2"/>
    <connection from="4/2to3/2" to="3/2to3/3" fromLane="0" toLane="1" tl="3/2" linkIndex="2"/>
    <connection from="4/2to3/2" to="3/2to2/2" fromLane="1" toLane="0" tl="3/2" linkIndex="1"/>
    <connection from="4/2to3/2" to="3/2to2/2" fromLane="1" toLane="1" tl="3/2" linkIndex="1"/>
    <connection from="4/2to3/2" to="3/2to3/1" fromLane="2" toLane="0" tl="3/2" linkIndex="0"/>
    <connection from="4/2to3/2" to="3/2to3/1" fromLane="2" toLane="1" tl="3/2" linkIndex="0"/>
    <connection from="4/2to3/2" to="3/2to3/1" fromLane="2" toLane="2" tl="3/2" linkIndex="0"/>

    <connection from="3/3to3/2" to="3/2to2/2" fromLane="0" toLane="0" tl="3/2" linkIndex="5"/>
    <connection from="3/3to3/2" to="3/2to2/2" fromLane="0" toLane="1" tl="3/2" linkIndex="5"/>
    <connection from="3/3to3/2" to="3/2to3/1" fromLane="1" toLane="0" tl="3/2" linkIndex="4"/>
    <connection from="3/3to3/2" to="3/2to3/1" fromLane="1" toLane="1" tl="3/2" linkIndex="4"/>
    <connection from="3/3to3/2" to="3/2to3/1" fromLane="1" toLane="2" tl="3/2" linkIndex="4"/>
    <connection from="3/3to3/2" to="3/2to4/2" fromLane="2" toLane="0" tl="3/2" linkIndex="3"/>
    <connection from="3/3to3/2" to="3/2to4/2" fromLane="2" toLane="1" tl="3/2" linkIndex="3"/>

    <connection from="2/2to3/2" to="3/2to3/1" fromLane="0" toLane="0" tl="3/2" linkIndex="8"/>
    <connection from="2/2to3/2" to="3/2to3/1" fromLane="0" toLane="1" tl="3/2" linkIndex="8"/>
    <connection from="2/2to3/2" to="3/2to3/1" fromLane="0" toLane="2" tl="3/2" linkIndex="8"/>
    <connection from="2/2to3/2" to="3/2to4/2" fromLane="1" toLane="0" tl="3/2" linkIndex="7"/>
    <connection from="2/2to3/2" to="3/2to4/2" fromLane="1" toLane="1" tl="3/2" linkIndex="7"/>
    <connection from="2/2to3/2" to="3/2to3/3" fromLane="2" toLane="0" tl="3/2" linkIndex="6"/>
    <connection from="2/2to3/2" to="3/2to3/3" fromLane="2" toLane="1" tl="3/2" linkIndex="6"/>

    <connection from="3/1to3/2" to="3/2to4/2" fromLane="0" toLane="0" tl="3/2" linkIndex="11"/>
    <connection from="3/1to3/2" to="3/2to4/2" fromLane="0" toLane="1" tl="3/2" linkIndex="11"/>
    <connection from="3/1to3/2" to="3/2to3/3" fromLane="1" toLane="0" tl="3/2" linkIndex="10"/>
    <connection from="3/1to3/2" to="3/2to3/3" fromLane="1" toLane="1" tl="3/2" linkIndex="10"/>
    <connection from="3/1to3/2" to="3/2to2/2" fromLane="2" toLane="0" tl="3/2" linkIndex="9"/>
    <connection from="3/1to3/2" to="3/2to2/2" fromLane="2" toLane="1" tl="3/2" linkIndex="9"/>

    <connection from="3/2to4/2" to="4/2to4/1" fromLane="0" toLane="0" tl="4/2" linkIndex="0"/>
    <connection from="3/2to4/2" to="4/2to4/1" fromLane="0" toLane="1" tl="4/2" linkIndex="0"/>
    <connection from="3/2to4/2" to="4/2to4/1" fromLane="1" toLane="0" tl="4/2" linkIndex="1"/>
    <connection from="3/2to4/2" to="4/2to4/1" fromLane="1" toLane="1" tl="4/2" linkIndex="1"/>

    <connection from="4/1to4/2" to="4/2to3/2" fromLane="0" toLane="0" tl="4/2" linkIndex="2"/>
    <connection from="4/1to4/2" to="4/2to3/2" fromLane="0" toLane="1" tl="4/2" linkIndex="2"/>
    <connection from="4/1to4/2" to="4/2to3/2" fromLane="0" toLane="2" tl="4/2" linkIndex="2"/>
    <connection from="4/1to4/2" to="4/2to3/2" fromLane="1" toLane="0" tl="4/2" linkIndex="3"/>
    <connection from="4/1to4/2" to="4/2to3/2" fromLane="1" toLane="1" tl="4/2" linkIndex="3"/>
    <connection from="4/1to4/2" to="4/2to3/2" fromLane="1" toLane="2" tl="4/2" linkIndex="3"/>

    <connection from="2/3to1/3" to="1/3to1/2" fromLane="0" toLane="0" tl="1/3" linkIndex="0"/>
    <connection from="2/3to1/3" to="1/3to1/2" fromLane="0" toLane="1" tl="1/3" linkIndex="0"/>
    <connection from="2/3to1/3" to="1/3to1/2" fromLane="0" toLane="2" tl="1/3" linkIndex="0"/>
    <connection from="2/3to1/3" to="1/3to1/2" fromLane="1" toLane="0" tl="1/3" linkIndex="1"/>
    <connection from="2/3to1/3" to="1/3to1/2" fromLane="1" toLane="1" tl="1/3" linkIndex="1"/>
    <connection from="2/3to1/3" to="1/3to1/2" fromLane="1" toLane="2" tl="1/3" linkIndex="1"/>

    <connection from="1/2to1/3" to="1/3to2/3" fromLane="0" toLane="0" tl="1/3" linkIndex="2"/>
    <connection from="1/2to1/3" to="1/3to2/3" fromLane="0" toLane="1" tl="1/3" linkIndex="2"/>
    <connection from="1/2to1/3" to="1/3to2/3" fromLane="1" toLane="0" tl="1/3" linkIndex="3"/>
    <connection from="1/2to1/3" to="1/3to2/3" fromLane="1" toLane="1" tl="1/3" linkIndex="3"/>

    <connection from="3/3to2/3" to="2/3to1/3" fromLane="0" toLane="0" tl="2/3" linkIndex="1"/>
    <connection from="3/3to2/3" to="2/3to1/3" fromLane="0" toLane="1" tl="2/3" linkIndex="1"/>
    <connection from="3/3to2/3" to="2/3to2/2" fromLane="1" toLane="0" tl="2/3" linkIndex="0"/>
    <connection from="3/3to2/3" to="2/3to2/2" fromLane="1" toLane="1" tl="2/3" linkIndex="0"/>

    <connection from="1/3to2/3" to="2/3to2/2" fromLane="0" toLane="0" tl="2/3" linkIndex="3"/>
    <connection from="1/3to2/3" to="2/3to2/2" fromLane="0" toLane="1" tl="2/3" linkIndex="3"/>
    <connection from="1/3to2/3" to="2/3to3/3" fromLane="1" toLane="0" tl="2/3" linkIndex="2"/>
    <connection from="1/3to2/3" to="2/3to3/3" fromLane="1" toLane="1" tl="2/3" linkIndex="2"/>

    <connection from="2/2to2/3" to="2/3to3/3" fromLane="0" toLane="0" tl="2/3" linkIndex="5"/>
    <connection from="2/2to2/3" to="2/3to3/3" fromLane="0" toLane="1" tl="2/3" linkIndex="5"/>
    <connection from="2/2to2/3" to="2/3to1/3" fromLane="1" toLane="0" tl="2/3" linkIndex="4"/>
    <connection from="2/2to2/3" to="2/3to1/3" fromLane="1" toLane="1" tl="2/3" linkIndex="4"/>

    <connection from="2/3to3/3" to="3/3to3/2" fromLane="0" toLane="0" tl="3/3" linkIndex="0"/>
    <connection from="2/3to3/3" to="3/3to3/2" fromLane="0" toLane="1" tl="3/3" linkIndex="0"/>
    <connection from="2/3to3/3" to="3/3to3/2" fromLane="0" toLane="2" tl="3/3" linkIndex="0"/>
    <connection from="2/3to3/3" to="3/3to3/2" fromLane="1" toLane="0" tl="3/3" linkIndex="1"/>
    <connection from="2/3to3/3" to="3/3to3/2" fromLane="1" toLane="1" tl="3/3" linkIndex="1"/>
    <connection from="2/3to3/3" to="3/3to3/2" fromLane="1" toLane="2" tl="3/3" linkIndex="1"/>

    <connection from="3/2to3/3" to="3/3to2/3" fromLane="0" toLane="0" tl="3/3" linkIndex="2"/>
    <connection from="3/2to3/3" to="3/3to2/3" fromLane="0" toLane="1" tl="3/3" linkIndex="2"/>
    <connection from="3/2to3/3" to="3/3to2/3" fromLane="1" toLane="0" tl="3/3" linkIndex="3"/>
    <connection from="3/2to3/3" to="3/3to2/3" fromLane="1" toLane="1" tl="3/3" linkIndex="3"/>

</tlLogics>