<?xml version="1.0" encoding="UTF-8"?>

<!-- generated on 09/27/14 18:43:04 by SUMO netgenerate Version 0.19.0
<?xml version="1.0" encoding="UTF-8"?>

<configuration xmlns:xsi="http://www.w3.org/2001/XMLSchema-instance" xsi:noNamespaceSchemaLocation="http://sumo-sim.org/xsd/netgenerateConfiguration.xsd">

    <grid_network>
        <grid value="true"/>
        <grid.number value="4"/>
        <grid.length value="200"/>
    </grid_network>

    <output>
        <output-file value="fanjing.net.xml"/>
        <plain-output-prefix value="fanjing"/>
    </output>

    <processing>
        <no-turnarounds value="true"/>
        <no-turnarounds.tls value="true"/>
    </processing>

    <building_defaults>
        <default-junction-type value="traffic_light"/>
    </building_defaults>

</configuration>
-->

<nodes version="0.13" xmlns:xsi="http://www.w3.org/2001/XMLSchema-instance" xsi:noNamespaceSchemaLocation="http://sumo-sim.org/xsd/nodes_file.xsd">
    <location netOffset="0.00,0.00" convBoundary="0.00,0.00,600.00,600.00" origBoundary="0.00,0.00,600.00,600.00" projParameter="!"/>

    <node id="0/0" x="0.00" y="0.00" type="traffic_light" tl="0/0"/>
    <node id="0/1" x="0.00" y="200.00" type="traffic_light" tl="0/1"/>
    <node id="0/2" x="0.00" y="400.00" type="traffic_light" tl="0/2"/>
    <node id="0/3" x="0.00" y="600.00" type="traffic_light" tl="0/3"/>
    <node id="1/0" x="200.00" y="0.00" type="traffic_light" tl="1/0"/>
    <node id="1/1" x="200.00" y="200.00" type="traffic_light" tl="1/1"/>
    <node id="1/2" x="200.00" y="400.00" type="traffic_light" tl="1/2"/>
    <node id="1/3" x="200.00" y="600.00" type="traffic_light" tl="1/3"/>
    <node id="2/0" x="400.00" y="0.00" type="traffic_light" tl="2/0"/>
    <node id="2/1" x="400.00" y="200.00" type="traffic_light" tl="2/1"/>
    <node id="2/2" x="400.00" y="400.00" type="traffic_light" tl="2/2"/>
    <node id="2/3" x="400.00" y="600.00" type="traffic_light" tl="2/3"/>
    <node id="3/0" x="600.00" y="0.00" type="traffic_light" tl="3/0"/>
    <node id="3/1" x="600.00" y="200.00" type="traffic_light" tl="3/1"/>
    <node id="3/2" x="600.00" y="400.00" type="traffic_light" tl="3/2"/>
    <node id="3/3" x="600.00" y="600.00" type="traffic_light" tl="3/3"/>
</nodes>
