<?xml version="1.0"?>
<routes>
   <vType id="vtype0" accel="2.6" decel="4.5" sigma="0.5" length="2.5" minGap="2.5" maxSpeed="14" color="1,1,0"/>
   <route id="route0" edges="1/0to1/1 1/1to3/1"/>
</routes>
