<?xml version="1.0" encoding="UTF-8"?>
<edges version="0.13" xmlns:xsi="http://www.w3.org/2001/XMLSchema-instance" xsi:noNamespaceSchemaLocation="http://sumo-sim.org/xsd/edges_file.xsd">
    <edge id="1/0to3/0" from="1/0" to="3/0" priority="-1" numLanes="2" speed="13.9"/>
    <edge id="1/0to1/1" from="1/0" to="1/1" priority="-1" numLanes="3" speed="13.9"/>

    <edge id="3/0to3/1" from="3/0" to="3/1" priority="-1" numLanes="3" speed="13.9"/>
    <edge id="3/0to1/0" from="3/0" to="1/0" priority="-1" numLanes="2" speed="13.9"/>

    <edge id="0/1to1/1" from="0/1" to="1/1" priority="-1" numLanes="3" speed="13.9"/>
    <edge id="0/1to0/2" from="0/1" to="0/2" priority="-1" numLanes="2" speed="13.9"/>

    <edge id="1/1to3/1" from="1/1" to="3/1" priority="-1" numLanes="3" speed="13.9"/>
    <edge id="1/1to1/2" from="1/1" to="1/2" priority="-1" numLanes="3" speed="13.9"/>
    <edge id="1/1to0/1" from="1/1" to="0/1" priority="-1" numLanes="2" speed="13.9"/>
    <edge id="1/1to1/0" from="1/1" to="1/0" priority="-1" numLanes="2" speed="13.9"/>

    <edge id="3/1to4/1" from="3/1" to="4/1" priority="-1" numLanes="2" speed="13.9"/>
    <edge id="3/1to3/2" from="3/1" to="3/2" priority="-1" numLanes="3" speed="13.9"/>
    <edge id="3/1to1/1" from="3/1" to="1/1" priority="-1" numLanes="3" speed="13.9"/>
    <edge id="3/1to3/0" from="3/1" to="3/0" priority="-1" numLanes="2" speed="13.9"/>

    <edge id="4/1to4/2" from="4/1" to="4/2" priority="-1" numLanes="2" speed="13.9"/>
    <edge id="4/1to3/1" from="4/1" to="3/1" priority="-1" numLanes="3" speed="13.9"/>

    <edge id="0/2to1/2" from="0/2" to="1/2" priority="-1" numLanes="3" speed="13.9"/>
    <edge id="0/2to0/1" from="0/2" to="0/1" priority="-1" numLanes="2" speed="13.9"/>

    <edge id="1/2to2/2" from="1/2" to="2/2" priority="-1" numLanes="2" speed="13.9"/>
    <edge id="1/2to1/3" from="1/2" to="1/3" priority="-1" numLanes="2" speed="13.9"/>
    <edge id="1/2to0/2" from="1/2" to="0/2" priority="-1" numLanes="2" speed="13.9"/>
    <edge id="1/2to1/1" from="1/2" to="1/1" priority="-1" numLanes="3" speed="13.9"/>

    <edge id="2/2to3/2" from="2/2" to="3/2" priority="-1" numLanes="3" speed="13.9"/>
    <edge id="2/2to2/3" from="2/2" to="2/3" priority="-1" numLanes="2" speed="13.9"/>
    <edge id="2/2to1/2" from="2/2" to="1/2" priority="-1" numLanes="3" speed="13.9"/>

    <edge id="3/2to4/2" from="3/2" to="4/2" priority="-1" numLanes="2" speed="13.9"/>
    <edge id="3/2to3/3" from="3/2" to="3/3" priority="-1" numLanes="2" speed="13.9"/>
    <edge id="3/2to2/2" from="3/2" to="2/2" priority="-1" numLanes="2" speed="13.9"/>
    <edge id="3/2to3/1" from="3/2" to="3/1" priority="-1" numLanes="3" speed="13.9"/>

    <edge id="4/2to3/2" from="4/2" to="3/2" priority="-1" numLanes="3" speed="13.9"/>
    <edge id="4/2to4/1" from="4/2" to="4/1" priority="-1" numLanes="2" speed="13.9"/>

    <edge id="1/3to2/3" from="1/3" to="2/3" priority="-1" numLanes="2" speed="13.9"/>
    <edge id="1/3to1/2" from="1/3" to="1/2" priority="-1" numLanes="3" speed="13.9"/>

    <edge id="2/3to3/3" from="2/3" to="3/3" priority="-1" numLanes="2" speed="13.9"/>
    <edge id="2/3to1/3" from="2/3" to="1/3" priority="-1" numLanes="2" speed="13.9"/>
    <edge id="2/3to2/2" from="2/3" to="2/2" priority="-1" numLanes="2" speed="13.9"/>

    <edge id="3/3to2/3" from="3/3" to="2/3" priority="-1" numLanes="2" speed="13.9"/>
    <edge id="3/3to3/2" from="3/3" to="3/2" priority="-1" numLanes="3" speed="13.9"/>

</edges>