<?xml version="1.0" encoding="UTF-8"?>

<!-- generated on 11/10/14 17:54:11 by SUMO netconvert Version 0.19.0
<?xml version="1.0" encoding="UTF-8"?>

<configuration xmlns:xsi="http://www.w3.org/2001/XMLSchema-instance" xsi:noNamespaceSchemaLocation="http://sumo-sim.org/xsd/netconvertConfiguration.xsd">

    <input>
        <node-files value="matrix.nod.xml"/>
        <edge-files value="matrix.edg.xml"/>
        <connection-files value="matrix.con.xml"/>
        <tllogic-files value="matrix.tll.xml"/>
    </input>

    <output>
        <output-file value="matrix.net.xml"/>
    </output>

    <report>
        <log value="matrix.net.log"/>
    </report>

</configuration>
-->

<net version="0.13" xmlns:xsi="http://www.w3.org/2001/XMLSchema-instance" xsi:noNamespaceSchemaLocation="http://sumo-sim.org/xsd/net_file.xsd">

    <location netOffset="-50.00,-50.00" convBoundary="0.00,0.00,600.00,600.00" origBoundary="0.00,0.00,1000.00,1000.00" projParameter="!"/>

    <edge id=":0/0_0" function="internal">
        <lane id=":0/0_0_0" index="0" speed="13.90" length="14.60" shape="-4.95,6.55 -4.23,2.96 -2.08,0.40 1.52,-1.14 6.55,-1.65"/>
        <lane id=":0/0_0_1" index="1" speed="13.90" length="14.60" shape="-1.65,6.55 -1.14,2.96 0.40,0.40 2.96,-1.14 6.55,-1.65"/>
    </edge>
    <edge id=":0/0_2" function="internal">
        <lane id=":0/0_2_0" index="0" speed="13.90" length="6.71" shape="6.55,4.95 4.41,5.05 2.87,5.35 1.96,5.85 1.65,6.55"/>
        <lane id=":0/0_2_1" index="1" speed="13.90" length="6.71" shape="6.55,1.65 4.41,1.96 2.87,2.87 1.96,4.41 1.65,6.55"/>
    </edge>
    <edge id=":0/1_0" function="internal">
        <lane id=":0/1_0_0" index="0" speed="13.90" length="19.81" shape="8.05,304.95 3.81,303.93 0.78,300.88 -1.04,295.78 -1.65,288.65"/>
        <lane id=":0/1_0_1" index="1" speed="13.90" length="19.81" shape="8.05,301.65 3.81,300.84 0.78,298.40 -1.04,294.34 -1.65,288.65"/>
    </edge>
    <edge id=":0/1_2" function="internal">
        <lane id=":0/1_2_0" index="0" speed="13.90" length="10.53" shape="4.95,288.65 5.14,291.45 5.72,293.45 6.69,294.65 8.05,295.05"/>
        <lane id=":0/1_2_1" index="1" speed="13.90" length="10.53" shape="4.95,288.65 5.14,292.89 5.72,295.93 6.69,297.74 8.05,298.35"/>
        <lane id=":0/1_2_2" index="2" speed="13.90" length="10.53" shape="1.65,288.65 2.05,291.45 3.25,293.45 5.25,294.65 8.05,295.05"/>
        <lane id=":0/1_2_3" index="3" speed="13.90" length="10.53" shape="1.65,288.65 2.05,292.89 3.25,295.93 5.25,297.74 8.05,298.35"/>
    </edge>
    <edge id=":1/0_0" function="internal">
        <lane id=":1/0_0_0" index="0" speed="13.90" length="9.08" shape="295.05,8.05 294.86,5.25 294.28,3.25 293.31,2.05 291.95,1.65"/>
        <lane id=":1/0_0_1" index="1" speed="13.90" length="9.08" shape="298.35,8.05 297.95,5.25 296.75,3.25 294.75,2.05 291.95,1.65"/>
    </edge>
    <edge id=":1/0_2" function="internal">
        <lane id=":1/0_2_0" index="0" speed="13.90" length="18.34" shape="291.95,-4.95 297.64,-4.14 301.70,-1.70 304.14,2.36 304.95,8.05"/>
        <lane id=":1/0_2_1" index="1" speed="13.90" length="18.34" shape="291.95,-4.95 296.19,-4.14 299.23,-1.70 301.04,2.36 301.65,8.05"/>
        <lane id=":1/0_2_2" index="2" speed="13.90" length="18.34" shape="291.95,-1.65 297.64,-1.04 301.70,0.77 304.14,3.81 304.95,8.05"/>
        <lane id=":1/0_2_3" index="3" speed="13.90" length="18.34" shape="291.95,-1.65 296.19,-1.04 299.23,0.77 301.04,3.81 301.65,8.05"/>
    </edge>
    <edge id=":1/1_0" function="internal">
        <lane id=":1/1_0_0" index="0" speed="13.90" length="7.85" shape="291.75,311.35 291.56,308.55 290.98,306.55 290.01,305.35 288.65,304.95"/>
    </edge>
    <edge id=":1/1_1" function="internal">
        <lane id=":1/1_1_0" index="0" speed="13.90" length="23.01" shape="295.05,311.35 295.57,304.37 296.70,299.45 297.83,294.80 298.35,288.65"/>
    </edge>
    <edge id=":1/1_2" function="internal">
        <lane id=":1/1_2_0" index="0" speed="13.90" length="8.23" shape="298.35,311.35 299.16,305.66 300.44,303.53"/>
    </edge>
    <edge id=":1/1_12" function="internal">
        <lane id=":1/1_12_0" index="0" speed="13.90" length="12.73" shape="300.44,303.53 301.60,301.60 305.66,299.16 311.35,298.35"/>
    </edge>
    <edge id=":1/1_3" function="internal">
        <lane id=":1/1_3_0" index="0" speed="13.90" length="7.85" shape="311.35,308.25 308.55,308.44 306.55,309.02 305.35,309.99 304.95,311.35"/>
    </edge>
    <edge id=":1/1_4" function="internal">
        <lane id=":1/1_4_0" index="0" speed="13.90" length="23.01" shape="311.35,304.95 304.37,304.43 299.45,303.30 294.80,302.17 288.65,301.65"/>
    </edge>
    <edge id=":1/1_5" function="internal">
        <lane id=":1/1_5_0" index="0" speed="13.90" length="8.23" shape="311.35,301.65 305.66,300.84 303.53,299.56"/>
    </edge>
    <edge id=":1/1_13" function="internal">
        <lane id=":1/1_13_0" index="0" speed="13.90" length="12.73" shape="303.53,299.56 301.60,298.40 299.16,294.34 298.35,288.65"/>
    </edge>
    <edge id=":1/1_6" function="internal">
        <lane id=":1/1_6_0" index="0" speed="13.90" length="7.85" shape="308.25,288.65 308.44,291.45 309.02,293.45 309.99,294.65 311.35,295.05"/>
    </edge>
    <edge id=":1/1_7" function="internal">
        <lane id=":1/1_7_0" index="0" speed="13.90" length="23.01" shape="304.95,288.65 304.43,295.63 303.30,300.55 302.17,305.20 301.65,311.35"/>
    </edge>
    <edge id=":1/1_8" function="internal">
        <lane id=":1/1_8_0" index="0" speed="13.90" length="8.23" shape="301.65,288.65 300.84,294.34 299.56,296.47"/>
    </edge>
    <edge id=":1/1_14" function="internal">
        <lane id=":1/1_14_0" index="0" speed="13.90" length="12.73" shape="299.56,296.47 298.40,298.40 294.34,300.84 288.65,301.65"/>
    </edge>
    <edge id=":1/1_9" function="internal">
        <lane id=":1/1_9_0" index="0" speed="13.90" length="7.85" shape="288.65,291.75 291.45,291.56 293.45,290.98 294.65,290.01 295.05,288.65"/>
    </edge>
    <edge id=":1/1_10" function="internal">
        <lane id=":1/1_10_0" index="0" speed="13.90" length="23.01" shape="288.65,295.05 295.63,295.57 300.55,296.70 305.20,297.83 311.35,298.35"/>
    </edge>
    <edge id=":1/1_11" function="internal">
        <lane id=":1/1_11_0" index="0" speed="13.90" length="8.23" shape="288.65,298.35 294.34,299.16 296.47,300.44"/>
    </edge>
    <edge id=":1/1_15" function="internal">
        <lane id=":1/1_15_0" index="0" speed="13.90" length="12.73" shape="296.47,300.44 298.40,301.60 300.84,305.66 301.65,311.35"/>
    </edge>
    <edge id=":1/2_0" function="internal">
        <lane id=":1/2_0_0" index="0" speed="13.90" length="18.34" shape="308.05,604.95 302.36,604.14 298.30,601.70 295.86,597.64 295.05,591.95"/>
        <lane id=":1/2_0_1" index="1" speed="13.90" length="18.34" shape="308.05,604.95 303.81,604.14 300.77,601.70 298.96,597.64 298.35,591.95"/>
        <lane id=":1/2_0_2" index="2" speed="13.90" length="18.34" shape="308.05,601.65 302.36,601.04 298.30,599.22 295.86,596.19 295.05,591.95"/>
        <lane id=":1/2_0_3" index="3" speed="13.90" length="18.34" shape="308.05,601.65 303.81,601.04 300.77,599.22 298.96,596.19 298.35,591.95"/>
    </edge>
    <edge id=":1/2_4" function="internal">
        <lane id=":1/2_4_0" index="0" speed="13.90" length="9.08" shape="304.95,591.95 305.14,594.75 305.72,596.75 306.69,597.95 308.05,598.35"/>
        <lane id=":1/2_4_1" index="1" speed="13.90" length="9.08" shape="301.65,591.95 302.05,594.75 303.25,596.75 305.25,597.95 308.05,598.35"/>
    </edge>
    <edge id=":2/1_0" function="internal">
        <lane id=":2/1_0_0" index="0" speed="13.90" length="10.53" shape="595.05,311.35 594.86,308.55 594.27,306.55 593.31,305.35 591.95,304.95"/>
        <lane id=":2/1_0_1" index="1" speed="13.90" length="10.53" shape="595.05,311.35 594.86,307.11 594.27,304.07 593.31,302.26 591.95,301.65"/>
        <lane id=":2/1_0_2" index="2" speed="13.90" length="10.53" shape="598.35,311.35 597.95,308.55 596.75,306.55 594.75,305.35 591.95,304.95"/>
        <lane id=":2/1_0_3" index="3" speed="13.90" length="10.53" shape="598.35,311.35 597.95,307.11 596.75,304.07 594.75,302.26 591.95,301.65"/>
    </edge>
    <edge id=":2/1_4" function="internal">
        <lane id=":2/1_4_0" index="0" speed="13.90" length="19.81" shape="591.95,295.05 596.19,296.07 599.23,299.13 601.04,304.22 601.65,311.35"/>
        <lane id=":2/1_4_1" index="1" speed="13.90" length="19.81" shape="591.95,298.35 596.19,299.16 599.23,301.60 601.04,305.66 601.65,311.35"/>
    </edge>
    <edge id=":2/2_0" function="internal">
        <lane id=":2/2_0_0" index="0" speed="13.90" length="14.60" shape="604.95,593.45 604.23,597.04 602.08,599.60 598.48,601.14 593.45,601.65"/>
        <lane id=":2/2_0_1" index="1" speed="13.90" length="14.60" shape="601.65,593.45 601.14,597.04 599.60,599.60 597.04,601.14 593.45,601.65"/>
    </edge>
    <edge id=":2/2_2" function="internal">
        <lane id=":2/2_2_0" index="0" speed="13.90" length="6.71" shape="593.45,595.05 595.59,594.95 597.13,594.65 598.04,594.15 598.35,593.45"/>
        <lane id=":2/2_2_1" index="1" speed="13.90" length="6.71" shape="593.45,598.35 595.59,598.04 597.13,597.13 598.04,595.59 598.35,593.45"/>
    </edge>

    <edge id="0/0to0/1" from="0/0" to="0/1" priority="-1">
        <lane id="0/0to0/1_0" index="0" speed="13.90" length="282.10" shape="4.95,6.55 4.95,288.65"/>
        <lane id="0/0to0/1_1" index="1" speed="13.90" length="282.10" shape="1.65,6.55 1.65,288.65"/>
    </edge>
    <edge id="0/0to1/0" from="0/0" to="1/0" priority="-1">
        <lane id="0/0to1/0_0" index="0" speed="13.90" length="285.40" shape="6.55,-4.95 291.95,-4.95"/>
        <lane id="0/0to1/0_1" index="1" speed="13.90" length="285.40" shape="6.55,-1.65 291.95,-1.65"/>
    </edge>
    <edge id="0/1to0/0" from="0/1" to="0/0" priority="-1">
        <lane id="0/1to0/0_0" index="0" speed="13.90" length="282.10" shape="-4.95,288.65 -4.95,6.55"/>
        <lane id="0/1to0/0_1" index="1" speed="13.90" length="282.10" shape="-1.65,288.65 -1.65,6.55"/>
    </edge>
    <edge id="0/1to1/1" from="0/1" to="1/1" priority="-1">
        <lane id="0/1to1/1_0" index="0" speed="13.90" length="280.60" shape="8.05,291.75 288.65,291.75"/>
        <lane id="0/1to1/1_1" index="1" speed="13.90" length="280.60" shape="8.05,295.05 288.65,295.05"/>
        <lane id="0/1to1/1_2" index="2" speed="13.90" length="280.60" shape="8.05,298.35 288.65,298.35"/>
    </edge>
    <edge id="1/0to0/0" from="1/0" to="0/0" priority="-1">
        <lane id="1/0to0/0_0" index="0" speed="13.90" length="285.40" shape="291.95,4.95 6.55,4.95"/>
        <lane id="1/0to0/0_1" index="1" speed="13.90" length="285.40" shape="291.95,1.65 6.55,1.65"/>
    </edge>
    <edge id="1/0to1/1" from="1/0" to="1/1" priority="-1">
        <lane id="1/0to1/1_0" index="0" speed="13.90" length="280.60" shape="308.25,8.05 308.25,288.65"/>
        <lane id="1/0to1/1_1" index="1" speed="13.90" length="280.60" shape="304.95,8.05 304.95,288.65"/>
        <lane id="1/0to1/1_2" index="2" speed="13.90" length="280.60" shape="301.65,8.05 301.65,288.65"/>
    </edge>
    <edge id="1/1to0/1" from="1/1" to="0/1" priority="-1">
        <lane id="1/1to0/1_0" index="0" speed="13.90" length="280.60" shape="288.65,304.95 8.05,304.95"/>
        <lane id="1/1to0/1_1" index="1" speed="13.90" length="280.60" shape="288.65,301.65 8.05,301.65"/>
    </edge>
    <edge id="1/1to1/0" from="1/1" to="1/0" priority="-1">
        <lane id="1/1to1/0_0" index="0" speed="13.90" length="280.60" shape="295.05,288.65 295.05,8.05"/>
        <lane id="1/1to1/0_1" index="1" speed="13.90" length="280.60" shape="298.35,288.65 298.35,8.05"/>
    </edge>
    <edge id="1/1to1/2" from="1/1" to="1/2" priority="-1">
        <lane id="1/1to1/2_0" index="0" speed="13.90" length="280.60" shape="304.95,311.35 304.95,591.95"/>
        <lane id="1/1to1/2_1" index="1" speed="13.90" length="280.60" shape="301.65,311.35 301.65,591.95"/>
    </edge>
    <edge id="1/1to2/1" from="1/1" to="2/1" priority="-1">
        <lane id="1/1to2/1_0" index="0" speed="13.90" length="280.60" shape="311.35,295.05 591.95,295.05"/>
        <lane id="1/1to2/1_1" index="1" speed="13.90" length="280.60" shape="311.35,298.35 591.95,298.35"/>
    </edge>
    <edge id="1/2to1/1" from="1/2" to="1/1" priority="-1">
        <lane id="1/2to1/1_0" index="0" speed="13.90" length="280.60" shape="291.75,591.95 291.75,311.35"/>
        <lane id="1/2to1/1_1" index="1" speed="13.90" length="280.60" shape="295.05,591.95 295.05,311.35"/>
        <lane id="1/2to1/1_2" index="2" speed="13.90" length="280.60" shape="298.35,591.95 298.35,311.35"/>
    </edge>
    <edge id="1/2to2/2" from="1/2" to="2/2" priority="-1">
        <lane id="1/2to2/2_0" index="0" speed="13.90" length="285.40" shape="308.05,595.05 593.45,595.05"/>
        <lane id="1/2to2/2_1" index="1" speed="13.90" length="285.40" shape="308.05,598.35 593.45,598.35"/>
    </edge>
    <edge id="2/1to1/1" from="2/1" to="1/1" priority="-1">
        <lane id="2/1to1/1_0" index="0" speed="13.90" length="280.60" shape="591.95,308.25 311.35,308.25"/>
        <lane id="2/1to1/1_1" index="1" speed="13.90" length="280.60" shape="591.95,304.95 311.35,304.95"/>
        <lane id="2/1to1/1_2" index="2" speed="13.90" length="280.60" shape="591.95,301.65 311.35,301.65"/>
    </edge>
    <edge id="2/1to2/2" from="2/1" to="2/2" priority="-1">
        <lane id="2/1to2/2_0" index="0" speed="13.90" length="282.10" shape="604.95,311.35 604.95,593.45"/>
        <lane id="2/1to2/2_1" index="1" speed="13.90" length="282.10" shape="601.65,311.35 601.65,593.45"/>
    </edge>
    <edge id="2/2to1/2" from="2/2" to="1/2" priority="-1">
        <lane id="2/2to1/2_0" index="0" speed="13.90" length="285.40" shape="593.45,604.95 308.05,604.95"/>
        <lane id="2/2to1/2_1" index="1" speed="13.90" length="285.40" shape="593.45,601.65 308.05,601.65"/>
    </edge>
    <edge id="2/2to2/1" from="2/2" to="2/1" priority="-1">
        <lane id="2/2to2/1_0" index="0" speed="13.90" length="282.10" shape="595.05,593.45 595.05,311.35"/>
        <lane id="2/2to2/1_1" index="1" speed="13.90" length="282.10" shape="598.35,593.45 598.35,311.35"/>
    </edge>

    <tlLogic id="0/0" type="static" programID="0" offset="0">
        <phase duration="30" state="GGGG"/>
    </tlLogic>
    <tlLogic id="0/1" type="static" programID="0" offset="0">
        <phase duration="30" state="GGGG"/>
    </tlLogic>
    <tlLogic id="1/0" type="static" programID="0" offset="0">
        <phase duration="30" state="GGGG"/>
    </tlLogic>
    <tlLogic id="1/1" type="static" programID="0" offset="0">
        <phase duration="27" state="rGGrrGrGGrrG"/>
        <phase duration="3" state="ryGrrGryGrrG"/>
        <phase duration="27" state="rrGGrGrrGGrG"/>
        <phase duration="3" state="rrGyrGrrGyrG"/>
        <phase duration="27" state="rrGrGGrrGrGG"/>
        <phase duration="3" state="rrGryGrrGryG"/>
        <phase duration="27" state="GrGrrGGrGrrG"/>
        <phase duration="3" state="yrGrrGyrGrrG"/>
    </tlLogic>
    <tlLogic id="1/2" type="static" programID="0" offset="0">
        <phase duration="30" state="GGGG"/>
    </tlLogic>
    <tlLogic id="2/1" type="static" programID="0" offset="0">
        <phase duration="30" state="GGGG"/>
    </tlLogic>
    <tlLogic id="2/2" type="static" programID="0" offset="0">
        <phase duration="30" state="GGGG"/>
    </tlLogic>

    <junction id="0/0" type="traffic_light" x="0.00" y="0.00" incLanes="0/1to0/0_0 0/1to0/0_1 1/0to0/0_0 1/0to0/0_1" intLanes=":0/0_0_0 :0/0_0_1 :0/0_2_0 :0/0_2_1" shape="-6.55,6.55 6.55,6.55 6.55,-6.55">
        <request index="0" response="0000" foes="0000" cont="0"/>
        <request index="1" response="0000" foes="0000" cont="0"/>
        <request index="2" response="0000" foes="0000" cont="0"/>
        <request index="3" response="0000" foes="0000" cont="0"/>
    </junction>
    <junction id="0/1" type="traffic_light" x="0.00" y="300.00" incLanes="1/1to0/1_0 1/1to0/1_1 0/0to0/1_0 0/0to0/1_1" intLanes=":0/1_0_0 :0/1_0_1 :0/1_2_0 :0/1_2_1 :0/1_2_2 :0/1_2_3" shape="8.05,306.55 8.05,290.15 6.55,288.65 -6.55,288.65">
        <request index="0" response="000000" foes="000000" cont="0"/>
        <request index="1" response="000000" foes="000000" cont="0"/>
        <request index="2" response="000000" foes="000000" cont="0"/>
        <request index="3" response="000000" foes="000000" cont="0"/>
        <request index="4" response="000000" foes="000000" cont="0"/>
        <request index="5" response="000000" foes="000000" cont="0"/>
    </junction>
    <junction id="1/0" type="traffic_light" x="300.00" y="0.00" incLanes="1/1to1/0_0 1/1to1/0_1 0/0to1/0_0 0/0to1/0_1" intLanes=":1/0_0_0 :1/0_0_1 :1/0_2_0 :1/0_2_1 :1/0_2_2 :1/0_2_3" shape="293.45,8.05 309.85,8.05 291.95,-6.55 291.95,6.55">
        <request index="0" response="000000" foes="000000" cont="0"/>
        <request index="1" response="000000" foes="000000" cont="0"/>
        <request index="2" response="000000" foes="000000" cont="0"/>
        <request index="3" response="000000" foes="000000" cont="0"/>
        <request index="4" response="000000" foes="000000" cont="0"/>
        <request index="5" response="000000" foes="000000" cont="0"/>
    </junction>
    <junction id="1/1" type="traffic_light" x="300.00" y="300.00" incLanes="1/2to1/1_0 1/2to1/1_1 1/2to1/1_2 2/1to1/1_0 2/1to1/1_1 2/1to1/1_2 1/0to1/1_0 1/0to1/1_1 1/0to1/1_2 0/1to1/1_0 0/1to1/1_1 0/1to1/1_2" intLanes=":1/1_0_0 :1/1_1_0 :1/1_12_0 :1/1_3_0 :1/1_4_0 :1/1_13_0 :1/1_6_0 :1/1_7_0 :1/1_14_0 :1/1_9_0 :1/1_10_0 :1/1_15_0" shape="290.15,311.35 306.55,311.35 311.35,309.85 311.35,293.45 309.85,288.65 293.45,288.65 288.65,290.15 288.65,306.55">
        <request index="0" response="000000000000" foes="000000000000" cont="0"/>
        <request index="1" response="000000000000" foes="000000000000" cont="0"/>
        <request index="2" response="000000000000" foes="000000000000" cont="1"/>
        <request index="3" response="000000000000" foes="000000000000" cont="0"/>
        <request index="4" response="000000000000" foes="000000000000" cont="0"/>
        <request index="5" response="000000000000" foes="000000000000" cont="1"/>
        <request index="6" response="000000000000" foes="000000000000" cont="0"/>
        <request index="7" response="000000000000" foes="000000000000" cont="0"/>
        <request index="8" response="000000000000" foes="000000000000" cont="1"/>
        <request index="9" response="000000000000" foes="000000000000" cont="0"/>
        <request index="10" response="000000000000" foes="000000000000" cont="0"/>
        <request index="11" response="000000000000" foes="000000000000" cont="1"/>
    </junction>
    <junction id="1/2" type="traffic_light" x="300.00" y="600.00" incLanes="2/2to1/2_0 2/2to1/2_1 1/1to1/2_0 1/1to1/2_1" intLanes=":1/2_0_0 :1/2_0_1 :1/2_0_2 :1/2_0_3 :1/2_4_0 :1/2_4_1" shape="308.05,606.55 308.05,593.45 306.55,591.95 290.15,591.95">
        <request index="0" response="000000" foes="000000" cont="0"/>
        <request index="1" response="000000" foes="000000" cont="0"/>
        <request index="2" response="000000" foes="000000" cont="0"/>
        <request index="3" response="000000" foes="000000" cont="0"/>
        <request index="4" response="000000" foes="000000" cont="0"/>
        <request index="5" response="000000" foes="000000" cont="0"/>
    </junction>
    <junction id="2/1" type="traffic_light" x="600.00" y="300.00" incLanes="2/2to2/1_0 2/2to2/1_1 1/1to2/1_0 1/1to2/1_1" intLanes=":2/1_0_0 :2/1_0_1 :2/1_0_2 :2/1_0_3 :2/1_4_0 :2/1_4_1" shape="593.45,311.35 606.55,311.35 591.95,293.45 591.95,309.85">
        <request index="0" response="000000" foes="000000" cont="0"/>
        <request index="1" response="000000" foes="000000" cont="0"/>
        <request index="2" response="000000" foes="000000" cont="0"/>
        <request index="3" response="000000" foes="000000" cont="0"/>
        <request index="4" response="000000" foes="000000" cont="0"/>
        <request index="5" response="000000" foes="000000" cont="0"/>
    </junction>
    <junction id="2/2" type="traffic_light" x="600.00" y="600.00" incLanes="2/1to2/2_0 2/1to2/2_1 1/2to2/2_0 1/2to2/2_1" intLanes=":2/2_0_0 :2/2_0_1 :2/2_2_0 :2/2_2_1" shape="606.55,593.45 593.45,593.45 593.45,606.55">
        <request index="0" response="0000" foes="0000" cont="0"/>
        <request index="1" response="0000" foes="0000" cont="0"/>
        <request index="2" response="0000" foes="0000" cont="0"/>
        <request index="3" response="0000" foes="0000" cont="0"/>
    </junction>

    <junction id=":1/1_12_0" type="internal" x="300.44" y="303.53" incLanes=":1/1_2_0 1/0to1/1_0 1/0to1/1_1" intLanes=""/>
    <junction id=":1/1_13_0" type="internal" x="303.53" y="299.56" incLanes=":1/1_5_0 0/1to1/1_0 0/1to1/1_1 1/0to1/1_1 1/2to1/1_1" intLanes=""/>
    <junction id=":1/1_14_0" type="internal" x="299.56" y="296.47" incLanes=":1/1_8_0 1/2to1/1_0 1/2to1/1_1" intLanes=""/>
    <junction id=":1/1_15_0" type="internal" x="296.47" y="300.44" incLanes=":1/1_11_0 1/0to1/1_1 1/2to1/1_1 2/1to1/1_0 2/1to1/1_1" intLanes=""/>

    <connection from="0/0to0/1" to="0/1to1/1" fromLane="0" toLane="1" via=":0/1_2_0" tl="0/1" linkIndex="2" dir="r" state="o"/>
    <connection from="0/0to0/1" to="0/1to1/1" fromLane="0" toLane="2" via=":0/1_2_1" tl="0/1" linkIndex="2" dir="r" state="o"/>
    <connection from="0/0to0/1" to="0/1to1/1" fromLane="1" toLane="1" via=":0/1_2_2" tl="0/1" linkIndex="3" dir="r" state="o"/>
    <connection from="0/0to0/1" to="0/1to1/1" fromLane="1" toLane="2" via=":0/1_2_3" tl="0/1" linkIndex="3" dir="r" state="o"/>
    <connection from="0/0to1/0" to="1/0to1/1" fromLane="0" toLane="1" via=":1/0_2_0" tl="1/0" linkIndex="2" dir="l" state="o"/>
    <connection from="0/0to1/0" to="1/0to1/1" fromLane="0" toLane="2" via=":1/0_2_1" tl="1/0" linkIndex="2" dir="l" state="o"/>
    <connection from="0/0to1/0" to="1/0to1/1" fromLane="1" toLane="1" via=":1/0_2_2" tl="1/0" linkIndex="3" dir="l" state="o"/>
    <connection from="0/0to1/0" to="1/0to1/1" fromLane="1" toLane="2" via=":1/0_2_3" tl="1/0" linkIndex="3" dir="l" state="o"/>
    <connection from="0/1to0/0" to="0/0to1/0" fromLane="0" toLane="1" via=":0/0_0_0" tl="0/0" linkIndex="2" dir="l" state="o"/>
    <connection from="0/1to0/0" to="0/0to1/0" fromLane="1" toLane="1" via=":0/0_0_1" tl="0/0" linkIndex="3" dir="l" state="o"/>
    <connection from="0/1to1/1" to="1/1to1/0" fromLane="0" toLane="0" via=":1/1_9_0" tl="1/1" linkIndex="8" dir="r" state="o"/>
    <connection from="0/1to1/1" to="1/1to2/1" fromLane="1" toLane="1" via=":1/1_10_0" tl="1/1" linkIndex="7" dir="s" state="o"/>
    <connection from="0/1to1/1" to="1/1to1/2" fromLane="2" toLane="1" via=":1/1_11_0" tl="1/1" linkIndex="6" dir="l" state="o"/>
    <connection from="1/0to0/0" to="0/0to0/1" fromLane="0" toLane="1" via=":0/0_2_0" tl="0/0" linkIndex="0" dir="r" state="o"/>
    <connection from="1/0to0/0" to="0/0to0/1" fromLane="1" toLane="1" via=":0/0_2_1" tl="0/0" linkIndex="1" dir="r" state="o"/>
    <connection from="1/0to1/1" to="1/1to2/1" fromLane="0" toLane="0" via=":1/1_6_0" tl="1/1" linkIndex="11" dir="r" state="o"/>
    <connection from="1/0to1/1" to="1/1to1/2" fromLane="1" toLane="1" via=":1/1_7_0" tl="1/1" linkIndex="10" dir="s" state="o"/>
    <connection from="1/0to1/1" to="1/1to0/1" fromLane="2" toLane="1" via=":1/1_8_0" tl="1/1" linkIndex="9" dir="l" state="o"/>
    <connection from="1/1to0/1" to="0/1to0/0" fromLane="0" toLane="1" via=":0/1_0_0" tl="0/1" linkIndex="0" dir="l" state="o"/>
    <connection from="1/1to0/1" to="0/1to0/0" fromLane="1" toLane="1" via=":0/1_0_1" tl="0/1" linkIndex="1" dir="l" state="o"/>
    <connection from="1/1to1/0" to="1/0to0/0" fromLane="0" toLane="1" via=":1/0_0_0" tl="1/0" linkIndex="0" dir="r" state="o"/>
    <connection from="1/1to1/0" to="1/0to0/0" fromLane="1" toLane="1" via=":1/0_0_1" tl="1/0" linkIndex="1" dir="r" state="o"/>
    <connection from="1/1to1/2" to="1/2to2/2" fromLane="0" toLane="1" via=":1/2_4_0" tl="1/2" linkIndex="2" dir="r" state="o"/>
    <connection from="1/1to1/2" to="1/2to2/2" fromLane="1" toLane="1" via=":1/2_4_1" tl="1/2" linkIndex="3" dir="r" state="o"/>
    <connection from="1/1to2/1" to="2/1to2/2" fromLane="0" toLane="1" via=":2/1_4_0" tl="2/1" linkIndex="2" dir="l" state="o"/>
    <connection from="1/1to2/1" to="2/1to2/2" fromLane="1" toLane="1" via=":2/1_4_1" tl="2/1" linkIndex="3" dir="l" state="o"/>
    <connection from="1/2to1/1" to="1/1to0/1" fromLane="0" toLane="0" via=":1/1_0_0" tl="1/1" linkIndex="5" dir="r" state="o"/>
    <connection from="1/2to1/1" to="1/1to1/0" fromLane="1" toLane="1" via=":1/1_1_0" tl="1/1" linkIndex="4" dir="s" state="o"/>
    <connection from="1/2to1/1" to="1/1to2/1" fromLane="2" toLane="1" via=":1/1_2_0" tl="1/1" linkIndex="3" dir="l" state="o"/>
    <connection from="1/2to2/2" to="2/2to2/1" fromLane="0" toLane="1" via=":2/2_2_0" tl="2/2" linkIndex="0" dir="r" state="o"/>
    <connection from="1/2to2/2" to="2/2to2/1" fromLane="1" toLane="1" via=":2/2_2_1" tl="2/2" linkIndex="1" dir="r" state="o"/>
    <connection from="2/1to1/1" to="1/1to1/2" fromLane="0" toLane="0" via=":1/1_3_0" tl="1/1" linkIndex="2" dir="r" state="o"/>
    <connection from="2/1to1/1" to="1/1to0/1" fromLane="1" toLane="1" via=":1/1_4_0" tl="1/1" linkIndex="1" dir="s" state="o"/>
    <connection from="2/1to1/1" to="1/1to1/0" fromLane="2" toLane="1" via=":1/1_5_0" tl="1/1" linkIndex="0" dir="l" state="o"/>
    <connection from="2/1to2/2" to="2/2to1/2" fromLane="0" toLane="1" via=":2/2_0_0" tl="2/2" linkIndex="2" dir="l" state="o"/>
    <connection from="2/1to2/2" to="2/2to1/2" fromLane="1" toLane="1" via=":2/2_0_1" tl="2/2" linkIndex="3" dir="l" state="o"/>
    <connection from="2/2to1/2" to="1/2to1/1" fromLane="0" toLane="1" via=":1/2_0_0" tl="1/2" linkIndex="0" dir="l" state="o"/>
    <connection from="2/2to1/2" to="1/2to1/1" fromLane="0" toLane="2" via=":1/2_0_1" tl="1/2" linkIndex="0" dir="l" state="o"/>
    <connection from="2/2to1/2" to="1/2to1/1" fromLane="1" toLane="1" via=":1/2_0_2" tl="1/2" linkIndex="1" dir="l" state="o"/>
    <connection from="2/2to1/2" to="1/2to1/1" fromLane="1" toLane="2" via=":1/2_0_3" tl="1/2" linkIndex="1" dir="l" state="o"/>
    <connection from="2/2to2/1" to="2/1to1/1" fromLane="0" toLane="1" via=":2/1_0_0" tl="2/1" linkIndex="0" dir="r" state="o"/>
    <connection from="2/2to2/1" to="2/1to1/1" fromLane="0" toLane="2" via=":2/1_0_1" tl="2/1" linkIndex="0" dir="r" state="o"/>
    <connection from="2/2to2/1" to="2/1to1/1" fromLane="1" toLane="1" via=":2/1_0_2" tl="2/1" linkIndex="1" dir="r" state="o"/>
    <connection from="2/2to2/1" to="2/1to1/1" fromLane="1" toLane="2" via=":2/1_0_3" tl="2/1" linkIndex="1" dir="r" state="o"/>

    <connection from=":0/0_0" to="0/0to1/0" fromLane="0" toLane="1" dir="s" state="M"/>
    <connection from=":0/0_0" to="0/0to1/0" fromLane="1" toLane="1" dir="s" state="M"/>
    <connection from=":0/0_2" to="0/0to0/1" fromLane="0" toLane="1" dir="s" state="M"/>
    <connection from=":0/0_2" to="0/0to0/1" fromLane="1" toLane="1" dir="s" state="M"/>
    <connection from=":0/1_0" to="0/1to0/0" fromLane="0" toLane="1" dir="s" state="M"/>
    <connection from=":0/1_0" to="0/1to0/0" fromLane="1" toLane="1" dir="s" state="M"/>
    <connection from=":0/1_2" to="0/1to1/1" fromLane="0" toLane="1" dir="s" state="M"/>
    <connection from=":0/1_2" to="0/1to1/1" fromLane="1" toLane="2" dir="s" state="M"/>
    <connection from=":0/1_2" to="0/1to1/1" fromLane="2" toLane="1" dir="s" state="M"/>
    <connection from=":0/1_2" to="0/1to1/1" fromLane="3" toLane="2" dir="s" state="M"/>
    <connection from=":1/0_0" to="1/0to0/0" fromLane="0" toLane="1" dir="s" state="M"/>
    <connection from=":1/0_0" to="1/0to0/0" fromLane="1" toLane="1" dir="s" state="M"/>
    <connection from=":1/0_2" to="1/0to1/1" fromLane="0" toLane="1" dir="s" state="M"/>
    <connection from=":1/0_2" to="1/0to1/1" fromLane="1" toLane="2" dir="s" state="M"/>
    <connection from=":1/0_2" to="1/0to1/1" fromLane="2" toLane="1" dir="s" state="M"/>
    <connection from=":1/0_2" to="1/0to1/1" fromLane="3" toLane="2" dir="s" state="M"/>
    <connection from=":1/1_0" to="1/1to0/1" fromLane="0" toLane="0" dir="s" state="M"/>
    <connection from=":1/1_1" to="1/1to1/0" fromLane="0" toLane="1" dir="s" state="M"/>
    <connection from=":1/1_2" to="1/1to2/1" fromLane="0" toLane="1" via=":1/1_12_0" dir="s" state="M"/>
    <connection from=":1/1_12" to="1/1to2/1" fromLane="0" toLane="1" dir="s" state="M"/>
    <connection from=":1/1_3" to="1/1to1/2" fromLane="0" toLane="0" dir="s" state="M"/>
    <connection from=":1/1_4" to="1/1to0/1" fromLane="0" toLane="1" dir="s" state="M"/>
    <connection from=":1/1_5" to="1/1to1/0" fromLane="0" toLane="1" via=":1/1_13_0" dir="s" state="M"/>
    <connection from=":1/1_13" to="1/1to1/0" fromLane="0" toLane="1" dir="s" state="M"/>
    <connection from=":1/1_6" to="1/1to2/1" fromLane="0" toLane="0" dir="s" state="M"/>
    <connection from=":1/1_7" to="1/1to1/2" fromLane="0" toLane="1" dir="s" state="M"/>
    <connection from=":1/1_8" to="1/1to0/1" fromLane="0" toLane="1" via=":1/1_14_0" dir="s" state="M"/>
    <connection from=":1/1_14" to="1/1to0/1" fromLane="0" toLane="1" dir="s" state="M"/>
    <connection from=":1/1_9" to="1/1to1/0" fromLane="0" toLane="0" dir="s" state="M"/>
    <connection from=":1/1_10" to="1/1to2/1" fromLane="0" toLane="1" dir="s" state="M"/>
    <connection from=":1/1_11" to="1/1to1/2" fromLane="0" toLane="1" via=":1/1_15_0" dir="s" state="M"/>
    <connection from=":1/1_15" to="1/1to1/2" fromLane="0" toLane="1" dir="s" state="M"/>
    <connection from=":1/2_0" to="1/2to1/1" fromLane="0" toLane="1" dir="s" state="M"/>
    <connection from=":1/2_0" to="1/2to1/1" fromLane="1" toLane="2" dir="s" state="M"/>
    <connection from=":1/2_0" to="1/2to1/1" fromLane="2" toLane="1" dir="s" state="M"/>
    <connection from=":1/2_0" to="1/2to1/1" fromLane="3" toLane="2" dir="s" state="M"/>