<?xml version="1.0" encoding="UTF-8"?>
<nodes version="0.13" xmlns:xsi="http://www.w3.org/2001/XMLSchema-instance" xsi:noNamespaceSchemaLocation="http://sumo-sim.org/xsd/nodes_file.xsd">
    <location netOffset="0.00,0.00" convBoundary="0.00,0.00,1600.0,1300.0" origBoundary="0.00,0.00,1600.0,1300.0" projParameter="!"/>
    <node id="1/0" x="350.0" y="50.0" type="traffic_light" tl="1/0"/>
    <node id="3/0" x="950.0" y="50.0" type="traffic_light" tl="3/0"/>
    <node id="0/1" x="50.0" y="350.0" type="traffic_light" tl="0/1"/>
    <node id="1/1" x="350.0" y="350.0" type="traffic_light" tl="1/1"/>
    <node id="3/1" x="950.0" y="350.0" type="traffic_light" tl="3/1"/>
    <node id="4/1" x="1250.0" y="350.0" type="traffic_light" tl="4/1"/>
    <node id="0/2" x="50.0" y="650.0" type="traffic_light" tl="0/2"/>
    <node id="1/2" x="350.0" y="650.0" type="traffic_light" tl="1/2"/>
    <node id="2/2" x="650.0" y="650.0" type="traffic_light" tl="2/2"/>
    <node id="3/2" x="950.0" y="650.0" type="traffic_light" tl="3/2"/>
    <node id="4/2" x="1250.0" y="650.0" type="traffic_light" tl="4/2"/>
    <node id="1/3" x="350.0" y="950.0" type="traffic_light" tl="1/3"/>
    <node id="2/3" x="650.0" y="950.0" type="traffic_light" tl="2/3"/>
    <node id="3/3" x="950.0" y="950.0" type="traffic_light" tl="3/3"/>
</nodes>