[General]
cmdenv-express-mode = true
cmdenv-autoflush = false
cmdenv-status-frequency = 10s

#tkenv-default-config = debug
#tkenv-default-run = 1
tkenv-image-path = bitmaps

network = scenario

##########################################################
#            Simulation parameters                       #
##########################################################
debug-on-errors = true
print-undisposed = false

sim-time-limit = 72000s

**.scalar-recording = false
**.vector-recording = false

**.debug = false
**.coreDebug = false

*.playgroundSizeX = 4000m
*.playgroundSizeY = 4000m
*.playgroundSizeZ = 50m


##########################################################
# Annotation parameters                                  #
##########################################################
*.annotations.draw = false

##########################################################
# Obstacle parameters                                    #
##########################################################
*.obstacles.debug = false

##########################################################
#            WorldUtility parameters                     #
##########################################################
*.world.useTorus = false
*.world.use2D = false

##########################################################
#            TraCIScenarioManager parameters             #
##########################################################
*.manager.updateInterval = 0.1s
*.manager.host = "localhost"
*.manager.port = 9999
*.manager.moduleType = "org.mixim.examples.veins.Car"
*.manager.moduleName = "node"
*.manager.moduleDisplayString = ""
*.manager.autoShutdown = true
*.manager.margin = 25
*.manager.launchConfig = xmldoc("fanjing.launchd.xml")

##########################################################
#            11p specific parameters                     #
#                                                        #
#                    NIC-Settings                        #
##########################################################
*.connectionManager.pMax = 20mW
*.connectionManager.sat = -89dBm
*.connectionManager.alpha = 2.0
*.connectionManager.carrierFrequency = 5.890e9 Hz
*.connectionManager.sendDirect = true

*.**.nic.mac1609_4.useServiceChannel = false

*.**.nic.mac1609_4.txPower = 20mW
*.**.nic.mac1609_4.bitrate = 18Mbps

*.**.nic.phy80211p.sensitivity = -89dBm
*.**.nic.phy80211p.maxTXPower = 10mW
*.**.nic.phy80211p.useThermalNoise = true
*.**.nic.phy80211p.thermalNoise = -110dBm
*.**.nic.phy80211p.decider = xmldoc("config.xml")
*.**.nic.phy80211p.analogueModels = xmldoc("config.xml")
*.**.nic.phy80211p.usePropagationDelay = true

##########################################################
#                    WaveAppLayer                        #
##########################################################
*.node[*].applType = "smartcity.flowreserved.application.TestAppDemo"
*.node[*].appl.debug = false
*.node[*].appl.headerLength = 256 bit
*.node[*].appl.sendBeacons = false
*.node[*].appl.dataOnSch = false
*.node[*].appl.sendData = true
*.node[*].appl.beaconInterval = 1s
*.node[*].appl.beaconPriority = 3
*.node[*].appl.dataPriority = 2
*.node[*].appl.maxOffset = 0.005s

##########################################################
#                      Mobility                          #
##########################################################
*.node[*].mobilityType = "smartcity.flowreserved.modules.mobility.SMTMobility"
*.node[*].mobility.x = 0
*.node[*].mobility.y = 0
*.node[*].mobility.z = 1.895


[Config nodebug_matrix_offset]
description = "nodebug - matrix - offset"
**.debug = false
**.coreDebug = false
*.obstacles.draw = false
*.annotations.draw = false
*.map.draw = false
*.map.noconnect = false
*.vm.generateNewXMLFile = false
*.vm.useCarSpawnOffset = true
*.vm.maxCarFlowRate = 0.2
*.vm.minCarFlowRate = 0.0
*.vm.maxFreeCarFlowRate = 0.2
*.vm.minFreeCarFlowRate = 0.05
*.vm.reverseCarFlowRate = 0.5
*.vm.carSpawnPeriod = 2h
*.vm.carSpawnTimeLimit = 4h
*.vm.carNumLimit = 0
*.vm.carFlowXMLPath = "./results/matrix.cfg.xml"
*.manager.launchConfig = xmldoc("matrix.launchd.xml")
*.map.xmlName = "matrixlog_4h_hasoffset_noovertake"
*.node[*].mobility.disallowOvertake = true

[Config nodebug_matrix_nooffset]
description = "nodebug - matrix - nooffset"
**.debug = false
**.coreDebug = false
*.obstacles.draw = false
*.annotations.draw = false
*.map.draw = false
*.map.noconnect = false
*.vm.generateNewXMLFile = false
*.vm.useCarSpawnOffset = false
*.vm.maxCarFlowRate = 0.2
*.vm.minCarFlowRate = 0.0
*.vm.maxFreeCarFlowRate = 0.2
*.vm.minFreeCarFlowRate = 0.05
*.vm.reverseCarFlowRate = 0.5
*.vm.carSpawnPeriod = 2h
*.vm.carSpawnTimeLimit = 4h
*.vm.carNumLimit = 0
*.vm.carFlowXMLPath = "./results/matrix.cfg.xml"
*.manager.launchConfig = xmldoc("matrix.launchd.xml")
*.map.xmlName = "matrixlog_4h_nooffset_noovertake"
*.node[*].mobility.disallowOvertake = true

[Config nodebug_matrix_win_test]
description = "nodebug - matrix"
**.debug = false
**.coreDebug = false
*.obstacles.draw = false
*.annotations.draw = false
*.map.draw = false
*.map.noconnect = false
*.vm.generateNewXMLFile = true
*.vm.useCarSpawnOffset = false
*.vm.maxCarFlowRate = 0.2
*.vm.minCarFlowRate = 0.0
*.vm.maxFreeCarFlowRate = 0.2
*.vm.minFreeCarFlowRate = 0.05
*.vm.reverseCarFlowRate = 0.5
*.vm.carSpawnOffset = 2min
*.vm.carSpawnPeriod = 10min
*.vm.carSpawnTimeLimit = 20min
*.vm.carSpawnStartTime = 3min
*.vm.carNumLimit = 0
*.vm.carFlowXMLPath = "./results/matrix.cfg_test.xml"
*.manager.launchConfig = xmldoc("matrix.launchd.xml")
*.map.xmlName = "./results/matrixlog_test_nooffset_noovertake"
*.map.useFixFunc = true
*.node[*].mobility.disallowOvertake = true

[Config nodebug_erlangen]
description = "nodebug - erlangen"
**.debug = false
**.coreDebug = false
*.obstacles.draw = false
*.annotations.draw = false
*.map.draw = false
*.map.noconnect = false
*.map.hostnum = 500
*.manager.launchConfig = xmldoc("erlangen.launchd.xml")
seed-set = ${s=0}


[Config nodebug_fanjing_h]
description = "nodebug - matrix - highflow"
**.debug = false
**.coreDebug = false
*.obstacles.draw = false
*.annotations.draw = false
*.map.draw = false
*.map.noconnect = false
*.map.hostnum = 500
*.manager.launchConfig = xmldoc("matrix.launchd.xml")



[Config nodebug]
description = "default settings"
**.debug = false
**.coreDebug = false
*.annotations.draw = false
